OPT_V10/Two_days_MYC3/network_debug.txt
Pandapower Network Debug Info
==================================================

BUS:
          name  vn_kv type  zone  in_service   geo
0        Bus 4    0.4    b  None        True  None
1        Bus 5    0.4    b  None        True  None
2        Bus 6    0.4    b  None        True  None
3        Bus 7    0.4    b  None        True  None
4        Bus 8   15.0    b  None        True  None
5        Bus 9   15.0    b  None        True  None
6       Bus 10   15.0    b  None        True  None
7     Sub MV 2   15.0    b  None        True  None
8     Sub LV 2    0.4    b  None        True  None
9   Slack HV 0   70.0    b  None        True  None
10  Slack MV 0   15.0    b  None        True  None
--------------------------------------------------

LOAD:
            name  bus      p_mw    q_mvar  const_z_percent  const_i_percent  sn_mva  scaling  in_service type
0      Load 4 T1    0 -0.001799  0.001015              0.0              0.0     NaN      1.0        True  wye
1      Load 4 T2    0  0.000822  0.000989              0.0              0.0     NaN      1.0        True  wye
2      Load 4 T3    0  0.001090  0.001030              0.0              0.0     NaN      1.0        True  wye
3      Load 4 T4    0  0.000994  0.000964              0.0              0.0     NaN      1.0        True  wye
4      Load 4 T5    0  0.001177  0.000828              0.0              0.0     NaN      1.0        True  wye
5      Load 4 T6    0  0.000963  0.001038              0.0              0.0     NaN      1.0        True  wye
6      Load 4 T7    0  0.001168  0.000939              0.0              0.0     NaN      1.0        True  wye
7      Load 4 T8    0  0.000753  0.000978              0.0              0.0     NaN      1.0        True  wye
8      Load 4 T9    0  0.000023  0.001078              0.0              0.0     NaN      1.0        True  wye
9     Load 4 T10    0 -0.001113  0.001166              0.0              0.0     NaN      1.0        True  wye
10    Load 4 T11    0 -0.001931  0.001115              0.0              0.0     NaN      1.0        True  wye
11    Load 4 T12    0 -0.002052  0.001189              0.0              0.0     NaN      1.0        True  wye
12    Load 4 T13    0 -0.001758  0.001080              0.0              0.0     NaN      1.0        True  wye
13    Load 4 T14    0 -0.001409  0.000965              0.0              0.0     NaN      1.0        True  wye
14    Load 4 T15    0 -0.000323  0.000919              0.0              0.0     NaN      1.0        True  wye
15    Load 4 T16    0  0.000670  0.001071              0.0              0.0     NaN      1.0        True  wye
16    Load 4 T17    0  0.000828  0.001093              0.0              0.0     NaN      1.0        True  wye
17    Load 4 T18    0  0.000868  0.000948              0.0              0.0     NaN      1.0        True  wye
18    Load 4 T19    0  0.000892  0.000875              0.0              0.0     NaN      1.0        True  wye
19    Load 4 T20    0  0.000910  0.001185              0.0              0.0     NaN      1.0        True  wye
20    Load 4 T21    0  0.001111  0.001120              0.0              0.0     NaN      1.0        True  wye
21    Load 4 T22    0  0.000966  0.000960              0.0              0.0     NaN      1.0        True  wye
22    Load 4 T23    0  0.001143  0.000840              0.0              0.0     NaN      1.0        True  wye
23    Load 4 T24    0  0.001159  0.000835              0.0              0.0     NaN      1.0        True  wye
24    Load 4 T25    0  0.001158  0.000970              0.0              0.0     NaN      1.0        True  wye
25    Load 4 T26    0  0.001179  0.001073              0.0              0.0     NaN      1.0        True  wye
26    Load 4 T27    0  0.001030  0.000869              0.0              0.0     NaN      1.0        True  wye
27    Load 4 T28    0  0.001068  0.001073              0.0              0.0     NaN      1.0        True  wye
28    Load 4 T29    0  0.001153  0.001137              0.0              0.0     NaN      1.0        True  wye
29    Load 4 T30    0  0.001017  0.001194              0.0              0.0     NaN      1.0        True  wye
30    Load 4 T31    0  0.000857  0.000858              0.0              0.0     NaN      1.0        True  wye
31    Load 4 T32    0  0.000899  0.000968              0.0              0.0     NaN      1.0        True  wye
32    Load 4 T33    0 -0.000095  0.000931              0.0              0.0     NaN      1.0        True  wye
33    Load 4 T34    0 -0.001135  0.001090              0.0              0.0     NaN      1.0        True  wye
34    Load 4 T35    0 -0.001902  0.001173              0.0              0.0     NaN      1.0        True  wye
35    Load 4 T36    0 -0.001875  0.000831              0.0              0.0     NaN      1.0        True  wye
36    Load 4 T37    0 -0.001527  0.000836              0.0              0.0     NaN      1.0        True  wye
37    Load 4 T38    0 -0.001056  0.001094              0.0              0.0     NaN      1.0        True  wye
38    Load 4 T39    0 -0.000156  0.001194              0.0              0.0     NaN      1.0        True  wye
39    Load 4 T40    0  0.000833  0.000874              0.0              0.0     NaN      1.0        True  wye
40    Load 4 T41    0  0.000811  0.001108              0.0              0.0     NaN      1.0        True  wye
41    Load 4 T42    0  0.000802  0.000859              0.0              0.0     NaN      1.0        True  wye
42    Load 4 T43    0  0.001062  0.001189              0.0              0.0     NaN      1.0        True  wye
43    Load 4 T44    0  0.001012  0.001010              0.0              0.0     NaN      1.0        True  wye
44    Load 4 T45    0  0.000983  0.000971              0.0              0.0     NaN      1.0        True  wye
45    Load 4 T46    0  0.000869  0.000912              0.0              0.0     NaN      1.0        True  wye
46    Load 4 T47    0  0.000849  0.000870              0.0              0.0     NaN      1.0        True  wye
47    Load 4 T48    0  0.000872  0.000816              0.0              0.0     NaN      1.0        True  wye
48     Load 5 T1    1 -0.001965  0.001654              0.0              0.0     NaN      1.0        True  wye
49     Load 5 T2    1  0.001225  0.001821              0.0              0.0     NaN      1.0        True  wye
50     Load 5 T3    1  0.001629  0.002126              0.0              0.0     NaN      1.0        True  wye
51     Load 5 T4    1  0.001611  0.002216              0.0              0.0     NaN      1.0        True  wye
52     Load 5 T5    1  0.001568  0.001796              0.0              0.0     NaN      1.0        True  wye
53     Load 5 T6    1  0.001474  0.001830              0.0              0.0     NaN      1.0        True  wye
54     Load 5 T7    1  0.001766  0.001890              0.0              0.0     NaN      1.0        True  wye
55     Load 5 T8    1  0.001475  0.001968              0.0              0.0     NaN      1.0        True  wye
56     Load 5 T9    1 -0.000244  0.001740              0.0              0.0     NaN      1.0        True  wye
57    Load 5 T10    1 -0.001271  0.001986              0.0              0.0     NaN      1.0        True  wye
58    Load 5 T11    1 -0.001820  0.001662              0.0              0.0     NaN      1.0        True  wye
59    Load 5 T12    1 -0.001983  0.002160              0.0              0.0     NaN      1.0        True  wye
60    Load 5 T13    1 -0.002320  0.002371              0.0              0.0     NaN      1.0        True  wye
61    Load 5 T14    1 -0.001061  0.001844              0.0              0.0     NaN      1.0        True  wye
62    Load 5 T15    1  0.000108  0.002250              0.0              0.0     NaN      1.0        True  wye
63    Load 5 T16    1  0.001443  0.001776              0.0              0.0     NaN      1.0        True  wye
64    Load 5 T17    1  0.001661  0.001820              0.0              0.0     NaN      1.0        True  wye
65    Load 5 T18    1  0.001386  0.002250              0.0              0.0     NaN      1.0        True  wye
66    Load 5 T19    1  0.001320  0.001920              0.0              0.0     NaN      1.0        True  wye
67    Load 5 T20    1  0.001982  0.002122              0.0              0.0     NaN      1.0        True  wye
68    Load 5 T21    1  0.001263  0.002347              0.0              0.0     NaN      1.0        True  wye
69    Load 5 T22    1  0.001348  0.002369              0.0              0.0     NaN      1.0        True  wye
70    Load 5 T23    1  0.001566  0.001768              0.0              0.0     NaN      1.0        True  wye
71    Load 5 T24    1  0.001442  0.002120              0.0              0.0     NaN      1.0        True  wye
72    Load 5 T25    1  0.001235  0.001834              0.0              0.0     NaN      1.0        True  wye
73    Load 5 T26    1  0.001563  0.002381              0.0              0.0     NaN      1.0        True  wye
74    Load 5 T27    1  0.001653  0.001625              0.0              0.0     NaN      1.0        True  wye
75    Load 5 T28    1  0.001407  0.001925              0.0              0.0     NaN      1.0        True  wye
76    Load 5 T29    1  0.001284  0.001926              0.0              0.0     NaN      1.0        True  wye
77    Load 5 T30    1  0.001761  0.001609              0.0              0.0     NaN      1.0        True  wye
78    Load 5 T31    1  0.001623  0.002171              0.0              0.0     NaN      1.0        True  wye
79    Load 5 T32    1  0.001110  0.001658              0.0              0.0     NaN      1.0        True  wye
80    Load 5 T33    1  0.000064  0.002207              0.0              0.0     NaN      1.0        True  wye
81    Load 5 T34    1 -0.000934  0.002008              0.0              0.0     NaN      1.0        True  wye
82    Load 5 T35    1 -0.002222  0.002168              0.0              0.0     NaN      1.0        True  wye
83    Load 5 T36    1 -0.001838  0.001618              0.0              0.0     NaN      1.0        True  wye
84    Load 5 T37    1 -0.001740  0.002200              0.0              0.0     NaN      1.0        True  wye
85    Load 5 T38    1 -0.001304  0.001947              0.0              0.0     NaN      1.0        True  wye
86    Load 5 T39    1  0.000257  0.002200              0.0              0.0     NaN      1.0        True  wye
87    Load 5 T40    1  0.001537  0.002091              0.0              0.0     NaN      1.0        True  wye
88    Load 5 T41    1  0.001269  0.001685              0.0              0.0     NaN      1.0        True  wye
89    Load 5 T42    1  0.001270  0.002332              0.0              0.0     NaN      1.0        True  wye
90    Load 5 T43    1  0.001362  0.001837              0.0              0.0     NaN      1.0        True  wye
91    Load 5 T44    1  0.001559  0.002010              0.0              0.0     NaN      1.0        True  wye
92    Load 5 T45    1  0.001280  0.001839              0.0              0.0     NaN      1.0        True  wye
93    Load 5 T46    1  0.001543  0.002134              0.0              0.0     NaN      1.0        True  wye
94    Load 5 T47    1  0.001225  0.001970              0.0              0.0     NaN      1.0        True  wye
95    Load 5 T48    1  0.001508  0.002025              0.0              0.0     NaN      1.0        True  wye
96     Load 6 T1    2 -0.001222  0.003173              0.0              0.0     NaN      1.0        True  wye
97     Load 6 T2    2  0.001758  0.003238              0.0              0.0     NaN      1.0        True  wye
98     Load 6 T3    2  0.001754  0.003169              0.0              0.0     NaN      1.0        True  wye
99     Load 6 T4    2  0.001849  0.003111              0.0              0.0     NaN      1.0        True  wye
100    Load 6 T5    2  0.001921  0.003073              0.0              0.0     NaN      1.0        True  wye
101    Load 6 T6    2  0.001803  0.003234              0.0              0.0     NaN      1.0        True  wye
102    Load 6 T7    2  0.001788  0.003178              0.0              0.0     NaN      1.0        True  wye
103    Load 6 T8    2  0.002250  0.002765              0.0              0.0     NaN      1.0        True  wye
104    Load 6 T9    2  0.000938  0.002835              0.0              0.0     NaN      1.0        True  wye
105   Load 6 T10    2 -0.000309  0.002839              0.0              0.0     NaN      1.0        True  wye
106   Load 6 T11    2 -0.000767  0.003351              0.0              0.0     NaN      1.0        True  wye
107   Load 6 T12    2 -0.000970  0.002854              0.0              0.0     NaN      1.0        True  wye
108   Load 6 T13    2 -0.001034  0.002411              0.0              0.0     NaN      1.0        True  wye
109   Load 6 T14    2 -0.000375  0.002787              0.0              0.0     NaN      1.0        True  wye
110   Load 6 T15    2  0.000685  0.002813              0.0              0.0     NaN      1.0        True  wye
111   Load 6 T16    2  0.001962  0.003424              0.0              0.0     NaN      1.0        True  wye
112   Load 6 T17    2  0.001981  0.003368              0.0              0.0     NaN      1.0        True  wye
113   Load 6 T18    2  0.001634  0.003373              0.0              0.0     NaN      1.0        True  wye
114   Load 6 T19    2  0.001969  0.003427              0.0              0.0     NaN      1.0        True  wye
115   Load 6 T20    2  0.002363  0.003254              0.0              0.0     NaN      1.0        True  wye
116   Load 6 T21    2  0.001802  0.003158              0.0              0.0     NaN      1.0        True  wye
117   Load 6 T22    2  0.002121  0.003421              0.0              0.0     NaN      1.0        True  wye
118   Load 6 T23    2  0.002045  0.003128              0.0              0.0     NaN      1.0        True  wye
119   Load 6 T24    2  0.002200  0.003360              0.0              0.0     NaN      1.0        True  wye
120   Load 6 T25    2  0.001672  0.003221              0.0              0.0     NaN      1.0        True  wye
121   Load 6 T26    2  0.001950  0.003403              0.0              0.0     NaN      1.0        True  wye
122   Load 6 T27    2  0.002326  0.003447              0.0              0.0     NaN      1.0        True  wye
123   Load 6 T28    2  0.002265  0.002421              0.0              0.0     NaN      1.0        True  wye
124   Load 6 T29    2  0.001690  0.002998              0.0              0.0     NaN      1.0        True  wye
125   Load 6 T30    2  0.001951  0.003212              0.0              0.0     NaN      1.0        True  wye
126   Load 6 T31    2  0.001901  0.002522              0.0              0.0     NaN      1.0        True  wye
127   Load 6 T32    2  0.001620  0.002441              0.0              0.0     NaN      1.0        True  wye
128   Load 6 T33    2  0.000646  0.003122              0.0              0.0     NaN      1.0        True  wye
129   Load 6 T34    2 -0.000302  0.002835              0.0              0.0     NaN      1.0        True  wye
130   Load 6 T35    2 -0.000715  0.003124              0.0              0.0     NaN      1.0        True  wye
131   Load 6 T36    2 -0.000562  0.002433              0.0              0.0     NaN      1.0        True  wye
132   Load 6 T37    2 -0.000768  0.002476              0.0              0.0     NaN      1.0        True  wye
133   Load 6 T38    2 -0.000224  0.002692              0.0              0.0     NaN      1.0        True  wye
134   Load 6 T39    2  0.000838  0.003228              0.0              0.0     NaN      1.0        True  wye
135   Load 6 T40    2  0.001554  0.003528              0.0              0.0     NaN      1.0        True  wye
136   Load 6 T41    2  0.001950  0.003128              0.0              0.0     NaN      1.0        True  wye
137   Load 6 T42    2  0.001950  0.002993              0.0              0.0     NaN      1.0        True  wye
138   Load 6 T43    2  0.001637  0.003159              0.0              0.0     NaN      1.0        True  wye
139   Load 6 T44    2  0.002152  0.003370              0.0              0.0     NaN      1.0        True  wye
140   Load 6 T45    2  0.001697  0.003146              0.0              0.0     NaN      1.0        True  wye
141   Load 6 T46    2  0.002216  0.003093              0.0              0.0     NaN      1.0        True  wye
142   Load 6 T47    2  0.002513  0.002618              0.0              0.0     NaN      1.0        True  wye
143   Load 6 T48    2  0.002010  0.003435              0.0              0.0     NaN      1.0        True  wye
144    Load 7 T1    3 -0.000521  0.004254              0.0              0.0     NaN      1.0        True  wye
145    Load 7 T2    3  0.002867  0.004778              0.0              0.0     NaN      1.0        True  wye
146    Load 7 T3    3  0.002968  0.004008              0.0              0.0     NaN      1.0        True  wye
147    Load 7 T4    3  0.002825  0.004662              0.0              0.0     NaN      1.0        True  wye
148    Load 7 T5    3  0.002542  0.003853              0.0              0.0     NaN      1.0        True  wye
149    Load 7 T6    3  0.002139  0.004760              0.0              0.0     NaN      1.0        True  wye
150    Load 7 T7    3  0.002629  0.004221              0.0              0.0     NaN      1.0        True  wye
151    Load 7 T8    3  0.002827  0.003437              0.0              0.0     NaN      1.0        True  wye
152    Load 7 T9    3  0.001231  0.003924              0.0              0.0     NaN      1.0        True  wye
153   Load 7 T10    3 -0.000200  0.004043              0.0              0.0     NaN      1.0        True  wye
154   Load 7 T11    3 -0.000569  0.003380              0.0              0.0     NaN      1.0        True  wye
155   Load 7 T12    3 -0.001104  0.004293              0.0              0.0     NaN      1.0        True  wye
156   Load 7 T13    3 -0.000406  0.003794              0.0              0.0     NaN      1.0        True  wye
157   Load 7 T14    3 -0.000137  0.003662              0.0              0.0     NaN      1.0        True  wye
158   Load 7 T15    3  0.000867  0.004286              0.0              0.0     NaN      1.0        True  wye
159   Load 7 T16    3  0.002656  0.004615              0.0              0.0     NaN      1.0        True  wye
160   Load 7 T17    3  0.002361  0.003495              0.0              0.0     NaN      1.0        True  wye
161   Load 7 T18    3  0.002087  0.003318              0.0              0.0     NaN      1.0        True  wye
162   Load 7 T19    3  0.002303  0.003987              0.0              0.0     NaN      1.0        True  wye
163   Load 7 T20    3  0.002603  0.004330              0.0              0.0     NaN      1.0        True  wye
164   Load 7 T21    3  0.002902  0.004800              0.0              0.0     NaN      1.0        True  wye
165   Load 7 T22    3  0.002748  0.003648              0.0              0.0     NaN      1.0        True  wye
166   Load 7 T23    3  0.002048  0.004022              0.0              0.0     NaN      1.0        True  wye
167   Load 7 T24    3  0.002450  0.004170              0.0              0.0     NaN      1.0        True  wye
168   Load 7 T25    3  0.002364  0.004590              0.0              0.0     NaN      1.0        True  wye
169   Load 7 T26    3  0.002966  0.003871              0.0              0.0     NaN      1.0        True  wye
170   Load 7 T27    3  0.002332  0.004328              0.0              0.0     NaN      1.0        True  wye
171   Load 7 T28    3  0.001950  0.004191              0.0              0.0     NaN      1.0        True  wye
172   Load 7 T29    3  0.003172  0.004215              0.0              0.0     NaN      1.0        True  wye
173   Load 7 T30    3  0.002289  0.003612              0.0              0.0     NaN      1.0        True  wye
174   Load 7 T31    3  0.002612  0.003364              0.0              0.0     NaN      1.0        True  wye
175   Load 7 T32    3  0.001961  0.003234              0.0              0.0     NaN      1.0        True  wye
176   Load 7 T33    3  0.000964  0.004720              0.0              0.0     NaN      1.0        True  wye
177   Load 7 T34    3  0.000272  0.004227              0.0              0.0     NaN      1.0        True  wye
178   Load 7 T35    3 -0.000384  0.004386              0.0              0.0     NaN      1.0        True  wye
179   Load 7 T36    3 -0.000730  0.004060              0.0              0.0     NaN      1.0        True  wye
180   Load 7 T37    3 -0.000749  0.003720              0.0              0.0     NaN      1.0        True  wye
181   Load 7 T38    3  0.000278  0.004684              0.0              0.0     NaN      1.0        True  wye
182   Load 7 T39    3  0.001022  0.004532              0.0              0.0     NaN      1.0        True  wye
183   Load 7 T40    3  0.002715  0.004150              0.0              0.0     NaN      1.0        True  wye
184   Load 7 T41    3  0.002594  0.003606              0.0              0.0     NaN      1.0        True  wye
185   Load 7 T42    3  0.002175  0.004598              0.0              0.0     NaN      1.0        True  wye
186   Load 7 T43    3  0.003232  0.003345              0.0              0.0     NaN      1.0        True  wye
187   Load 7 T44    3  0.002252  0.004375              0.0              0.0     NaN      1.0        True  wye
188   Load 7 T45    3  0.002776  0.003896              0.0              0.0     NaN      1.0        True  wye
189   Load 7 T46    3  0.003232  0.003929              0.0              0.0     NaN      1.0        True  wye
190   Load 7 T47    3  0.002453  0.003945              0.0              0.0     NaN      1.0        True  wye
191   Load 7 T48    3  0.002532  0.003961              0.0              0.0     NaN      1.0        True  wye
192    Load 8 T1    4  0.000969  0.008487              0.0              0.0     NaN      1.0        True  wye
193    Load 8 T2    4  0.008260  0.009428              0.0              0.0     NaN      1.0        True  wye
194    Load 8 T3    4  0.011427  0.011201              0.0              0.0     NaN      1.0        True  wye
195    Load 8 T4    4  0.011225  0.010390              0.0              0.0     NaN      1.0        True  wye
196    Load 8 T5    4  0.009646  0.008226              0.0              0.0     NaN      1.0        True  wye
197    Load 8 T6    4  0.010612  0.008433              0.0              0.0     NaN      1.0        True  wye
198    Load 8 T7    4  0.009796  0.009580              0.0              0.0     NaN      1.0        True  wye
199    Load 8 T8    4  0.010398  0.009762              0.0              0.0     NaN      1.0        True  wye
200    Load 8 T9    4  0.008093  0.008685              0.0              0.0     NaN      1.0        True  wye
201   Load 8 T10    4  0.006353  0.008626              0.0              0.0     NaN      1.0        True  wye
202   Load 8 T11    4  0.006615  0.008440              0.0              0.0     NaN      1.0        True  wye
203   Load 8 T12    4  0.007346  0.011019              0.0              0.0     NaN      1.0        True  wye
204   Load 8 T13    4  0.007562  0.008012              0.0              0.0     NaN      1.0        True  wye
205   Load 8 T14    4  0.008765  0.011494              0.0              0.0     NaN      1.0        True  wye
206   Load 8 T15    4  0.010173  0.010260              0.0              0.0     NaN      1.0        True  wye
207   Load 8 T16    4  0.010845  0.011658              0.0              0.0     NaN      1.0        True  wye
208   Load 8 T17    4  0.009963  0.011354              0.0              0.0     NaN      1.0        True  wye
209   Load 8 T18    4  0.009991  0.011614              0.0              0.0     NaN      1.0        True  wye
210   Load 8 T19    4  0.008934  0.008154              0.0              0.0     NaN      1.0        True  wye
211   Load 8 T20    4  0.010285  0.011937              0.0              0.0     NaN      1.0        True  wye
212   Load 8 T21    4  0.011666  0.010733              0.0              0.0     NaN      1.0        True  wye
213   Load 8 T22    4  0.008126  0.010039              0.0              0.0     NaN      1.0        True  wye
214   Load 8 T23    4  0.010728  0.009266              0.0              0.0     NaN      1.0        True  wye
215   Load 8 T24    4  0.010732  0.011655              0.0              0.0     NaN      1.0        True  wye
216   Load 8 T25    4  0.011205  0.009611              0.0              0.0     NaN      1.0        True  wye
217   Load 8 T26    4  0.010884  0.008908              0.0              0.0     NaN      1.0        True  wye
218   Load 8 T27    4  0.008681  0.010143              0.0              0.0     NaN      1.0        True  wye
219   Load 8 T28    4  0.008850  0.008806              0.0              0.0     NaN      1.0        True  wye
220   Load 8 T29    4  0.008685  0.010333              0.0              0.0     NaN      1.0        True  wye
221   Load 8 T30    4  0.010420  0.008363              0.0              0.0     NaN      1.0        True  wye
222   Load 8 T31    4  0.008887  0.010801              0.0              0.0     NaN      1.0        True  wye
223   Load 8 T32    4  0.008204  0.009577              0.0              0.0     NaN      1.0        True  wye
224   Load 8 T33    4  0.007668  0.010331              0.0              0.0     NaN      1.0        True  wye
225   Load 8 T34    4  0.007126  0.008874              0.0              0.0     NaN      1.0        True  wye
226   Load 8 T35    4  0.007042  0.010221              0.0              0.0     NaN      1.0        True  wye
227   Load 8 T36    4  0.005829  0.011568              0.0              0.0     NaN      1.0        True  wye
228   Load 8 T37    4  0.006278  0.010078              0.0              0.0     NaN      1.0        True  wye
229   Load 8 T38    4  0.007320  0.009400              0.0              0.0     NaN      1.0        True  wye
230   Load 8 T39    4  0.010059  0.011185              0.0              0.0     NaN      1.0        True  wye
231   Load 8 T40    4  0.011402  0.011865              0.0              0.0     NaN      1.0        True  wye
232   Load 8 T41    4  0.008110  0.011793              0.0              0.0     NaN      1.0        True  wye
233   Load 8 T42    4  0.009595  0.008360              0.0              0.0     NaN      1.0        True  wye
234   Load 8 T43    4  0.011218  0.010582              0.0              0.0     NaN      1.0        True  wye
235   Load 8 T44    4  0.010375  0.009125              0.0              0.0     NaN      1.0        True  wye
236   Load 8 T45    4  0.011383  0.009937              0.0              0.0     NaN      1.0        True  wye
237   Load 8 T46    4  0.011132  0.010194              0.0              0.0     NaN      1.0        True  wye
238   Load 8 T47    4  0.009063  0.008889              0.0              0.0     NaN      1.0        True  wye
239   Load 8 T48    4  0.010852  0.009340              0.0              0.0     NaN      1.0        True  wye
240    Load 9 T1    5  0.002474  0.010789              0.0              0.0     NaN      1.0        True  wye
241    Load 9 T2    5  0.011544  0.009881              0.0              0.0     NaN      1.0        True  wye
242    Load 9 T3    5  0.010537  0.007431              0.0              0.0     NaN      1.0        True  wye
243    Load 9 T4    5  0.011305  0.008100              0.0              0.0     NaN      1.0        True  wye
244    Load 9 T5    5  0.010977  0.008282              0.0              0.0     NaN      1.0        True  wye
245    Load 9 T6    5  0.009791  0.008820              0.0              0.0     NaN      1.0        True  wye
246    Load 9 T7    5  0.009939  0.009467              0.0              0.0     NaN      1.0        True  wye
247    Load 9 T8    5  0.012379  0.010062              0.0              0.0     NaN      1.0        True  wye
248    Load 9 T9    5  0.009051  0.010315              0.0              0.0     NaN      1.0        True  wye
249   Load 9 T10    5  0.006395  0.010616              0.0              0.0     NaN      1.0        True  wye
250   Load 9 T11    5  0.007476  0.008154              0.0              0.0     NaN      1.0        True  wye
251   Load 9 T12    5  0.008817  0.007861              0.0              0.0     NaN      1.0        True  wye
252   Load 9 T13    5  0.007546  0.008746              0.0              0.0     NaN      1.0        True  wye
253   Load 9 T14    5  0.006402  0.007977              0.0              0.0     NaN      1.0        True  wye
254   Load 9 T15    5  0.010143  0.009768              0.0              0.0     NaN      1.0        True  wye
255   Load 9 T16    5  0.011938  0.009818              0.0              0.0     NaN      1.0        True  wye
256   Load 9 T17    5  0.012140  0.008148              0.0              0.0     NaN      1.0        True  wye
257   Load 9 T18    5  0.009707  0.008428              0.0              0.0     NaN      1.0        True  wye
258   Load 9 T19    5  0.010008  0.009735              0.0              0.0     NaN      1.0        True  wye
259   Load 9 T20    5  0.011192  0.009280              0.0              0.0     NaN      1.0        True  wye
260   Load 9 T21    5  0.009261  0.008420              0.0              0.0     NaN      1.0        True  wye
261   Load 9 T22    5  0.010790  0.009565              0.0              0.0     NaN      1.0        True  wye
262   Load 9 T23    5  0.011976  0.008780              0.0              0.0     NaN      1.0        True  wye
263   Load 9 T24    5  0.009983  0.010603              0.0              0.0     NaN      1.0        True  wye
264   Load 9 T25    5  0.012856  0.007634              0.0              0.0     NaN      1.0        True  wye
265   Load 9 T26    5  0.012403  0.007225              0.0              0.0     NaN      1.0        True  wye
266   Load 9 T27    5  0.009549  0.007584              0.0              0.0     NaN      1.0        True  wye
267   Load 9 T28    5  0.012312  0.010510              0.0              0.0     NaN      1.0        True  wye
268   Load 9 T29    5  0.010717  0.010272              0.0              0.0     NaN      1.0        True  wye
269   Load 9 T30    5  0.010292  0.008057              0.0              0.0     NaN      1.0        True  wye
270   Load 9 T31    5  0.011873  0.007424              0.0              0.0     NaN      1.0        True  wye
271   Load 9 T32    5  0.009551  0.009793              0.0              0.0     NaN      1.0        True  wye
272   Load 9 T33    5  0.009288  0.010474              0.0              0.0     NaN      1.0        True  wye
273   Load 9 T34    5  0.010764  0.008956              0.0              0.0     NaN      1.0        True  wye
274   Load 9 T35    5  0.007060  0.009065              0.0              0.0     NaN      1.0        True  wye
275   Load 9 T36    5  0.006009  0.007668              0.0              0.0     NaN      1.0        True  wye
276   Load 9 T37    5  0.008777  0.009927              0.0              0.0     NaN      1.0        True  wye
277   Load 9 T38    5  0.010149  0.007303              0.0              0.0     NaN      1.0        True  wye
278   Load 9 T39    5  0.008458  0.008237              0.0              0.0     NaN      1.0        True  wye
279   Load 9 T40    5  0.009631  0.010099              0.0              0.0     NaN      1.0        True  wye
280   Load 9 T41    5  0.010560  0.010751              0.0              0.0     NaN      1.0        True  wye
281   Load 9 T42    5  0.011806  0.008823              0.0              0.0     NaN      1.0        True  wye
282   Load 9 T43    5  0.009253  0.010057              0.0              0.0     NaN      1.0        True  wye
283   Load 9 T44    5  0.012189  0.007856              0.0              0.0     NaN      1.0        True  wye
284   Load 9 T45    5  0.012223  0.007813              0.0              0.0     NaN      1.0        True  wye
285   Load 9 T46    5  0.010104  0.007851              0.0              0.0     NaN      1.0        True  wye
286   Load 9 T47    5  0.010053  0.009540              0.0              0.0     NaN      1.0        True  wye
287   Load 9 T48    5  0.010615  0.009712              0.0              0.0     NaN      1.0        True  wye
288   Load 10 T1    6  0.002064  0.010558              0.0              0.0     NaN      1.0        True  wye
289   Load 10 T2    6  0.012585  0.012850              0.0              0.0     NaN      1.0        True  wye
290   Load 10 T3    6  0.011543  0.012559              0.0              0.0     NaN      1.0        True  wye
291   Load 10 T4    6  0.014271  0.010096              0.0              0.0     NaN      1.0        True  wye
292   Load 10 T5    6  0.012080  0.009054              0.0              0.0     NaN      1.0        True  wye
293   Load 10 T6    6  0.011312  0.011050              0.0              0.0     NaN      1.0        True  wye
294   Load 10 T7    6  0.013117  0.013188              0.0              0.0     NaN      1.0        True  wye
295   Load 10 T8    6  0.012660  0.010542              0.0              0.0     NaN      1.0        True  wye
296   Load 10 T9    6  0.011596  0.009954              0.0              0.0     NaN      1.0        True  wye
297  Load 10 T10    6  0.011940  0.012415              0.0              0.0     NaN      1.0        True  wye
298  Load 10 T11    6  0.011006  0.010264              0.0              0.0     NaN      1.0        True  wye
299  Load 10 T12    6  0.006989  0.011887              0.0              0.0     NaN      1.0        True  wye
300  Load 10 T13    6  0.010963  0.012516              0.0              0.0     NaN      1.0        True  wye
301  Load 10 T14    6  0.011925  0.011138              0.0              0.0     NaN      1.0        True  wye
302  Load 10 T15    6  0.008461  0.011094              0.0              0.0     NaN      1.0        True  wye
303  Load 10 T16    6  0.010294  0.010991              0.0              0.0     NaN      1.0        True  wye
304  Load 10 T17    6  0.013372  0.012097              0.0              0.0     NaN      1.0        True  wye
305  Load 10 T18    6  0.013355  0.009185              0.0              0.0     NaN      1.0        True  wye
306  Load 10 T19    6  0.013655  0.011915              0.0              0.0     NaN      1.0        True  wye
307  Load 10 T20    6  0.012002  0.011247              0.0              0.0     NaN      1.0        True  wye
308  Load 10 T21    6  0.012196  0.010681              0.0              0.0     NaN      1.0        True  wye
309  Load 10 T22    6  0.010806  0.012243              0.0              0.0     NaN      1.0        True  wye
310  Load 10 T23    6  0.014348  0.010808              0.0              0.0     NaN      1.0        True  wye
311  Load 10 T24    6  0.013064  0.012424              0.0              0.0     NaN      1.0        True  wye
312  Load 10 T25    6  0.012358  0.009431              0.0              0.0     NaN      1.0        True  wye
313  Load 10 T26    6  0.014354  0.011724              0.0              0.0     NaN      1.0        True  wye
314  Load 10 T27    6  0.012251  0.009189              0.0              0.0     NaN      1.0        True  wye
315  Load 10 T28    6  0.012122  0.010303              0.0              0.0     NaN      1.0        True  wye
316  Load 10 T29    6  0.010255  0.012882              0.0              0.0     NaN      1.0        True  wye
317  Load 10 T30    6  0.011026  0.012577              0.0              0.0     NaN      1.0        True  wye
318  Load 10 T31    6  0.012583  0.011512              0.0              0.0     NaN      1.0        True  wye
319  Load 10 T32    6  0.012223  0.012640              0.0              0.0     NaN      1.0        True  wye
320  Load 10 T33    6  0.010568  0.011531              0.0              0.0     NaN      1.0        True  wye
321  Load 10 T34    6  0.008523  0.009014              0.0              0.0     NaN      1.0        True  wye
322  Load 10 T35    6  0.010918  0.010582              0.0              0.0     NaN      1.0        True  wye
323  Load 10 T36    6  0.010539  0.009990              0.0              0.0     NaN      1.0        True  wye
324  Load 10 T37    6  0.007992  0.010071              0.0              0.0     NaN      1.0        True  wye
325  Load 10 T38    6  0.007767  0.010431              0.0              0.0     NaN      1.0        True  wye
326  Load 10 T39    6  0.012642  0.012069              0.0              0.0     NaN      1.0        True  wye
327  Load 10 T40    6  0.011671  0.011345              0.0              0.0     NaN      1.0        True  wye
328  Load 10 T41    6  0.009959  0.010505              0.0              0.0     NaN      1.0        True  wye
329  Load 10 T42    6  0.009800  0.012451              0.0              0.0     NaN      1.0        True  wye
330  Load 10 T43    6  0.010731  0.010549              0.0              0.0     NaN      1.0        True  wye
331  Load 10 T44    6  0.011268  0.012984              0.0              0.0     NaN      1.0        True  wye
332  Load 10 T45    6  0.011714  0.008967              0.0              0.0     NaN      1.0        True  wye
333  Load 10 T46    6  0.011909  0.012734              0.0              0.0     NaN      1.0        True  wye
334  Load 10 T47    6  0.010030  0.013177              0.0              0.0     NaN      1.0        True  wye
335  Load 10 T48    6  0.011294  0.009079              0.0              0.0     NaN      1.0        True  wye
--------------------------------------------------

EXT_GRID:
        name  bus  vm_pu  va_degree  slack_weight  in_service
0  ExtGrid 0    9    1.0        0.0           1.0        True
--------------------------------------------------

LINE:
      name std_type  from_bus  to_bus  length_km  r_ohm_per_km  x_ohm_per_km  c_nf_per_km  g_us_per_km  max_i_ka   df  parallel  type  in_service   geo
0   Line 0     None        10       7   0.400000        0.5502         0.429          0.0          0.0      0.23  1.0         1  None        True  None
1   Line 4     None         7       4   0.316228        0.5502         0.429          0.0          0.0      0.23  1.0         1  None        True  None
2  Line 10     None         8       0   0.136015        0.5502         0.429          0.0          0.0      0.23  1.0         1  None        True  None
3  Line 18     None         5       4   0.141421        0.5502         0.429          0.0          0.0      0.23  1.0         1  None        True  None
4  Line 20     None         6       5   0.200000        0.5502         0.429          0.0          0.0      0.23  1.0         1  None        True  None
5  Line 21     None         1       0   0.172047        0.5502         0.429          0.0          0.0      0.23  1.0         1  None        True  None
6  Line 23     None         3       0   0.194165        0.5502         0.429          0.0          0.0      0.23  1.0         1  None        True  None
7  Line 24     None         2       1   0.263059        0.5502         0.429          0.0          0.0      0.23  1.0         1  None        True  None
--------------------------------------------------

TRAFO:
                  name std_type  hv_bus  lv_bus  sn_mva  vn_hv_kv  vn_lv_kv  vk_percent  vkr_percent  pfe_kw  i0_percent  shift_degree tap_side  tap_neutral  tap_min  tap_max  tap_step_percent  tap_step_degree  tap_pos tap_changer_type  id_characteristic_table  tap_dependency_table  parallel   df  in_service
0  MV/LV Transformer 2     None       7       8    10.0      15.0       0.4        0.01         0.01    0.01        0.01           0.0     None          NaN      NaN      NaN               NaN              NaN      NaN              NaN                     <NA>                 False         1  1.0        True
1  Slack Transformer 0     None       9      10    40.0      70.0      15.0        0.01         0.01    0.01        0.01           0.0     None          NaN      NaN      NaN               NaN              NaN      NaN              NaN                     <NA>                 False         1  1.0        True
--------------------------------------------------

RES_BUS:
       vm_pu  va_degree      p_mw    q_mvar
0   0.992864   0.131148  0.000872  0.000816
1   0.988193   0.225045  0.001508  0.002025
2   0.983881   0.324632  0.002010  0.003435
3   0.989069   0.208539  0.002532  0.003961
4   0.999889   0.000592  0.010852  0.009340
5   0.999876   0.000626  0.010615  0.009712
6   0.999867   0.000634  0.011294  0.009079
7   0.999931   0.000478  0.000000  0.000000
8   0.999931   0.000484  0.000000  0.000000
9   1.000000   0.000000 -0.039837 -0.043473
10  1.000000   0.000006  0.000000  0.000000
--------------------------------------------------

RES_LINE:
   p_from_mw  q_from_mvar   p_to_mw  q_to_mvar         pl_mw       ql_mvar  i_from_ka   i_to_ka      i_ka  vm_from_pu  va_from_degree  vm_to_pu  va_to_degree  loading_percent
0   0.039827     0.039473 -0.039824  -0.039471  3.075542e-06  2.398050e-06   0.002158  0.002158  0.002158    1.000000        0.000006  0.999931      0.000478         0.938387
1   0.032763     0.028132 -0.032761  -0.028131  1.442211e-06  1.124516e-06   0.001662  0.001662  0.001662    0.999931        0.000478  0.999889      0.000592         0.722713
2   0.007051     0.010339 -0.006978  -0.010282  7.325992e-05  5.712196e-05   0.018064  0.018064  0.018064    0.999931        0.000484  0.992864      0.131148         7.854011
3  -0.021909    -0.018790  0.021909   0.018790  2.881664e-07  2.246881e-07   0.001111  0.001111  0.001111    0.999876        0.000626  0.999889      0.000592         0.483076
4  -0.011294    -0.009079  0.011294   0.009079  1.027215e-07  8.009365e-08   0.000558  0.000558  0.000558    0.999867        0.000634  0.999876      0.000626         0.242531
5  -0.003533    -0.005472  0.003559   0.005492  2.570539e-05  2.004291e-05   0.009514  0.009514  0.009514    0.988193        0.225045  0.992864      0.131148         4.136570
6  -0.002532    -0.003961  0.002547   0.003973  1.508617e-05  1.176294e-05   0.006861  0.006861  0.006861    0.989069        0.208539  0.992864      0.131148         2.983015
7  -0.002010    -0.003435  0.002025   0.003447  1.480419e-05  1.154307e-05   0.005839  0.005839  0.005839    0.983881        0.324632  0.988193      0.225045         2.538733
--------------------------------------------------

RES_TRAFO:
    p_hv_mw  q_hv_mvar   p_lv_mw  q_lv_mvar    pl_mw  ql_mvar   i_hv_ka   i_lv_ka  vm_hv_pu  va_hv_degree  vm_lv_pu  va_lv_degree  loading_percent
0  0.007061   0.011339 -0.007051  -0.010339  0.00001    0.001  0.000514  0.018064  0.999931      0.000478  0.999931      0.000484         0.133585
1  0.039837   0.043473 -0.039827  -0.039473  0.00001    0.004  0.000486  0.002158  1.000000      0.000000  1.000000      0.000006         0.147413
--------------------------------------------------

RES_EXT_GRID:
       p_mw    q_mvar
0  0.039837  0.043473
--------------------------------------------------

RES_LOAD:
         p_mw    q_mvar
0   -0.000000  0.000000
1    0.000000  0.000000
2    0.000000  0.000000
3    0.000000  0.000000
4    0.000000  0.000000
5    0.000000  0.000000
6    0.000000  0.000000
7    0.000000  0.000000
8    0.000000  0.000000
9   -0.000000  0.000000
10  -0.000000  0.000000
11  -0.000000  0.000000
12  -0.000000  0.000000
13  -0.000000  0.000000
14  -0.000000  0.000000
15   0.000000  0.000000
16   0.000000  0.000000
17   0.000000  0.000000
18   0.000000  0.000000
19   0.000000  0.000000
20   0.000000  0.000000
21   0.000000  0.000000
22   0.000000  0.000000
23   0.000000  0.000000
24   0.000000  0.000000
25   0.000000  0.000000
26   0.000000  0.000000
27   0.000000  0.000000
28   0.000000  0.000000
29   0.000000  0.000000
30   0.000000  0.000000
31   0.000000  0.000000
32  -0.000000  0.000000
33  -0.000000  0.000000
34  -0.000000  0.000000
35  -0.000000  0.000000
36  -0.000000  0.000000
37  -0.000000  0.000000
38  -0.000000  0.000000
39   0.000000  0.000000
40   0.000000  0.000000
41   0.000000  0.000000
42   0.000000  0.000000
43   0.000000  0.000000
44   0.000000  0.000000
45   0.000000  0.000000
46   0.000000  0.000000
47   0.000872  0.000816
48  -0.000000  0.000000
49   0.000000  0.000000
50   0.000000  0.000000
51   0.000000  0.000000
52   0.000000  0.000000
53   0.000000  0.000000
54   0.000000  0.000000
55   0.000000  0.000000
56  -0.000000  0.000000
57  -0.000000  0.000000
58  -0.000000  0.000000
59  -0.000000  0.000000
60  -0.000000  0.000000
61  -0.000000  0.000000
62   0.000000  0.000000
63   0.000000  0.000000
64   0.000000  0.000000
65   0.000000  0.000000
66   0.000000  0.000000
67   0.000000  0.000000
68   0.000000  0.000000
69   0.000000  0.000000
70   0.000000  0.000000
71   0.000000  0.000000
72   0.000000  0.000000
73   0.000000  0.000000
74   0.000000  0.000000
75   0.000000  0.000000
76   0.000000  0.000000
77   0.000000  0.000000
78   0.000000  0.000000
79   0.000000  0.000000
80   0.000000  0.000000
81  -0.000000  0.000000
82  -0.000000  0.000000
83  -0.000000  0.000000
84  -0.000000  0.000000
85  -0.000000  0.000000
86   0.000000  0.000000
87   0.000000  0.000000
88   0.000000  0.000000
89   0.000000  0.000000
90   0.000000  0.000000
91   0.000000  0.000000
92   0.000000  0.000000
93   0.000000  0.000000
94   0.000000  0.000000
95   0.001508  0.002025
96  -0.000000  0.000000
97   0.000000  0.000000
98   0.000000  0.000000
99   0.000000  0.000000
100  0.000000  0.000000
101  0.000000  0.000000
102  0.000000  0.000000
103  0.000000  0.000000
104  0.000000  0.000000
105 -0.000000  0.000000
106 -0.000000  0.000000
107 -0.000000  0.000000
108 -0.000000  0.000000
109 -0.000000  0.000000
110  0.000000  0.000000
111  0.000000  0.000000
112  0.000000  0.000000
113  0.000000  0.000000
114  0.000000  0.000000
115  0.000000  0.000000
116  0.000000  0.000000
117  0.000000  0.000000
118  0.000000  0.000000
119  0.000000  0.000000
120  0.000000  0.000000
121  0.000000  0.000000
122  0.000000  0.000000
123  0.000000  0.000000
124  0.000000  0.000000
125  0.000000  0.000000
126  0.000000  0.000000
127  0.000000  0.000000
128  0.000000  0.000000
129 -0.000000  0.000000
130 -0.000000  0.000000
131 -0.000000  0.000000
132 -0.000000  0.000000
133 -0.000000  0.000000
134  0.000000  0.000000
135  0.000000  0.000000
136  0.000000  0.000000
137  0.000000  0.000000
138  0.000000  0.000000
139  0.000000  0.000000
140  0.000000  0.000000
141  0.000000  0.000000
142  0.000000  0.000000
143  0.002010  0.003435
144 -0.000000  0.000000
145  0.000000  0.000000
146  0.000000  0.000000
147  0.000000  0.000000
148  0.000000  0.000000
149  0.000000  0.000000
150  0.000000  0.000000
151  0.000000  0.000000
152  0.000000  0.000000
153 -0.000000  0.000000
154 -0.000000  0.000000
155 -0.000000  0.000000
156 -0.000000  0.000000
157 -0.000000  0.000000
158  0.000000  0.000000
159  0.000000  0.000000
160  0.000000  0.000000
161  0.000000  0.000000
162  0.000000  0.000000
163  0.000000  0.000000
164  0.000000  0.000000
165  0.000000  0.000000
166  0.000000  0.000000
167  0.000000  0.000000
168  0.000000  0.000000
169  0.000000  0.000000
170  0.000000  0.000000
171  0.000000  0.000000
172  0.000000  0.000000
173  0.000000  0.000000
174  0.000000  0.000000
175  0.000000  0.000000
176  0.000000  0.000000
177  0.000000  0.000000
178 -0.000000  0.000000
179 -0.000000  0.000000
180 -0.000000  0.000000
181  0.000000  0.000000
182  0.000000  0.000000
183  0.000000  0.000000
184  0.000000  0.000000
185  0.000000  0.000000
186  0.000000  0.000000
187  0.000000  0.000000
188  0.000000  0.000000
189  0.000000  0.000000
190  0.000000  0.000000
191  0.002532  0.003961
192  0.000000  0.000000
193  0.000000  0.000000
194  0.000000  0.000000
195  0.000000  0.000000
196  0.000000  0.000000
197  0.000000  0.000000
198  0.000000  0.000000
199  0.000000  0.000000
200  0.000000  0.000000
201  0.000000  0.000000
202  0.000000  0.000000
203  0.000000  0.000000
204  0.000000  0.000000
205  0.000000  0.000000
206  0.000000  0.000000
207  0.000000  0.000000
208  0.000000  0.000000
209  0.000000  0.000000
210  0.000000  0.000000
211  0.000000  0.000000
212  0.000000  0.000000
213  0.000000  0.000000
214  0.000000  0.000000
215  0.000000  0.000000
216  0.000000  0.000000
217  0.000000  0.000000
218  0.000000  0.000000
219  0.000000  0.000000
220  0.000000  0.000000
221  0.000000  0.000000
222  0.000000  0.000000
223  0.000000  0.000000
224  0.000000  0.000000
225  0.000000  0.000000
226  0.000000  0.000000
227  0.000000  0.000000
228  0.000000  0.000000
229  0.000000  0.000000
230  0.000000  0.000000
231  0.000000  0.000000
232  0.000000  0.000000
233  0.000000  0.000000
234  0.000000  0.000000
235  0.000000  0.000000
236  0.000000  0.000000
237  0.000000  0.000000
238  0.000000  0.000000
239  0.010852  0.009340
240  0.000000  0.000000
241  0.000000  0.000000
242  0.000000  0.000000
243  0.000000  0.000000
244  0.000000  0.000000
245  0.000000  0.000000
246  0.000000  0.000000
247  0.000000  0.000000
248  0.000000  0.000000
249  0.000000  0.000000
250  0.000000  0.000000
251  0.000000  0.000000
252  0.000000  0.000000
253  0.000000  0.000000
254  0.000000  0.000000
255  0.000000  0.000000
256  0.000000  0.000000
257  0.000000  0.000000
258  0.000000  0.000000
259  0.000000  0.000000
260  0.000000  0.000000
261  0.000000  0.000000
262  0.000000  0.000000
263  0.000000  0.000000
264  0.000000  0.000000
265  0.000000  0.000000
266  0.000000  0.000000
267  0.000000  0.000000
268  0.000000  0.000000
269  0.000000  0.000000
270  0.000000  0.000000
271  0.000000  0.000000
272  0.000000  0.000000
273  0.000000  0.000000
274  0.000000  0.000000
275  0.000000  0.000000
276  0.000000  0.000000
277  0.000000  0.000000
278  0.000000  0.000000
279  0.000000  0.000000
280  0.000000  0.000000
281  0.000000  0.000000
282  0.000000  0.000000
283  0.000000  0.000000
284  0.000000  0.000000
285  0.000000  0.000000
286  0.000000  0.000000
287  0.010615  0.009712
288  0.000000  0.000000
289  0.000000  0.000000
290  0.000000  0.000000
291  0.000000  0.000000
292  0.000000  0.000000
293  0.000000  0.000000
294  0.000000  0.000000
295  0.000000  0.000000
296  0.000000  0.000000
297  0.000000  0.000000
298  0.000000  0.000000
299  0.000000  0.000000
300  0.000000  0.000000
301  0.000000  0.000000
302  0.000000  0.000000
303  0.000000  0.000000
304  0.000000  0.000000
305  0.000000  0.000000
306  0.000000  0.000000
307  0.000000  0.000000
308  0.000000  0.000000
309  0.000000  0.000000
310  0.000000  0.000000
311  0.000000  0.000000
312  0.000000  0.000000
313  0.000000  0.000000
314  0.000000  0.000000
315  0.000000  0.000000
316  0.000000  0.000000
317  0.000000  0.000000
318  0.000000  0.000000
319  0.000000  0.000000
320  0.000000  0.000000
321  0.000000  0.000000
322  0.000000  0.000000
323  0.000000  0.000000
324  0.000000  0.000000
325  0.000000  0.000000
326  0.000000  0.000000
327  0.000000  0.000000
328  0.000000  0.000000
329  0.000000  0.000000
330  0.000000  0.000000
331  0.000000  0.000000
332  0.000000  0.000000
333  0.000000  0.000000
334  0.000000  0.000000
335  0.011294  0.009079
--------------------------------------------------

BUS_GEODATA:
       x     y
0   11.0  48.0
1   25.0  38.0
2   51.0  42.0
3    0.0  64.0
4   10.0  70.0
5   20.0  80.0
6   40.0  80.0
7    0.0  40.0
8    0.5  39.5
9    0.0   0.0
10   0.5  -0.5
--------------------------------------------------
